  Page 1                                    Thu Oct  3 13:34:31 2024

  ******************************************************************
  *                           E P A N E T                          *
  *                   Hydraulic and Water Quality                  *
  *                   Analysis for Pipe Networks                   *
  *                         Version 2.3                            *
  ******************************************************************
  